running example: Mon Feb  6 18:12:22 CST 2023

setting up example...


running mesher...


 **********************************************
 *** Specfem 2-D Mesher - serial version    ***
 **********************************************

 Running Git version of the code corresponding to fd7926e7eae5f9c0f614cf7d06e56c768ca3a9a4
 dating 2022-12-13 20:03:51 +0100

 Reading the parameter file...

 Title of the simulation: Test acoustic


 Receiver lines:
   Nb of line sets =            0

   using existing STATIONS file: ./DATA/STATIONS
   file name is ./DATA/STATIONS
   found            1  receivers

 Materials:
   Nb of solid, fluid or porous materials =            1

 --------
 Material #           1  isotropic
 rho,cp,cs   =    2500.0000000000000        2700.0000000000000        0.0000000000000000     
 Qkappa, Qmu =    9999.0000000000000        9999.0000000000000     
 Material is fluid
 --------


 Mesh from internal meshing:

 Reading interface data from file: ./DATA/./interfaces.dat
 Reading            2  points for interface            1
 Reading            2  points for interface            2

 Total number of layers in z direction =            1
 There are          100  spectral elements along Z in layer            1

 Total number of spectral elements along X =          100
 Total number of spectral elements along Z =          100

 Regions:
   Nb of regions in the mesh =            1

 ------
 Region            1
 IX from            1  to          100
 IZ from            1  to          100
 Material #            1  isotropic
 Material is fluid
 vp     =    2700.00000    
 vs     =    0.00000000    
 rho    =    2500.00000    
 Poisson's ratio =   0.500000000    
 QKappa =    9999.00000    
 Qmu    =    9999.00000    
 ------

 Parameter file successfully read 


 Mesh from internal meshing:
   Total number of spectral elements         =        10000

 PML mesh elements:
   Total number of PML elements =            0

 The mesh contains        10000  elements

 Control elements have            9  nodes

 Reading in SOURCE file...

 Source           1
   Position xs, zs =    300.00000000000000        500.00000000000000     

   Source type (1=force, 2=moment tensor):            1
   Force source:
   Angle of the source (deg) =    0.0000000000000000     

   Time function type (1=Ricker, 2=First derivative, 3=Gaussian, 4=Dirac, 5=Heaviside, 6,7=ocean type, 8=Read from file, 9=burst, 10=Sinusoidal, 11=Ormsby):           1
   Ricker wavelet (second-derivative):
   Frequency, delay =    50.000000000000000        0.0000000000000000     
   Multiplying factor  =    1000.0000000000000     

 all sources are okay

 Normals to surface not needed

 Node coordinates:

 reading node coordinates from interfaces...

 Mesh surfaces:
   determining acoustic free surface...
   number of acoustic elements with free surface =            0

   determining absorbing boundary surfaces...
   number of elements with absorbing boundaries =          400


 Mesh dimensions: 
   Min and max value of X in the grid =    0.0000000000000000        1000.0000000000000     
   Min and max value of Z in the grid =    0.0000000000000000        1000.0000000000000     

 Mesh partitioning:
   decomposing mesh using NPROC =            1

 Graph construction:
   graph adjacency done

 Coupled interfaces:
 nedges_coupled (acoustic/elastic)     =            0
 nedges_coupled (acoustic/poroelastic) =            0
 nedges_coupled (poroelastic/elastic)  =            0

 Local numbering:
   NPROC:            1
   number of elements:        10000

 decompose mesh all done

 Absorbing boundaries:
   nedge_bound   :          400
   nelemabs_merge:          400

 Saving databases:
   database file: ./OUTPUT_FILES/Database00000.bin
   slice            0  has number of spectral elements =       10000

   VTK mesh files:
   written file: ./OUTPUT_FILES//mesh_materials.vtk
   written file: ./OUTPUT_FILES//mesh_partition_number.vtk
   done


 This will be a serial simulation


running solver...


 **********************************************
 **** Specfem 2-D Solver - serial version  ****
 **********************************************

 Running Git version of the code corresponding to fd7926e7eae5f9c0f614cf7d06e56c768ca3a9a4
 dating 2022-12-13 20:03:51 +0100


 NDIM =            2

 NGLLX =            5
 NGLLZ =            5

 using single precision for the calculations

 smallest and largest possible floating-point numbers are:    1.17549435E-38   3.40282347E+38

 Reading the parameter file...

 Title of the simulation: Test acoustic


   using existing STATIONS file: ./DATA/STATIONS
   file name is ./DATA/STATIONS
   found            1  receivers

 Parameter file successfully read 

 Reading in SOURCE file...

 Source           1
   Position xs, zs =    300.00000000000000        500.00000000000000     

   Source type (1=force, 2=moment tensor):            1
   Force source:
   Angle of the source (deg) =    0.0000000000000000     

   Time function type (1=Ricker, 2=First derivative, 3=Gaussian, 4=Dirac, 5=Heaviside, 6,7=ocean type, 8=Read from file, 9=burst, 10=Sinusoidal, 11=Ormsby):           1
   Ricker wavelet (second-derivative):
   Frequency, delay =    50.000000000000000        0.0000000000000000     
   Multiplying factor  =    1000.0000000000000     

 all sources are okay



 -------------------------------------------------------------------------------
 -------------------------------------------------------------------------------
 Program SPECFEM2D: 
 -------------------------------------------------------------------------------
 -------------------------------------------------------------------------------
 Test acoustic
 -------------------------------------------------------------------------------
 -------------------------------------------------------------------------------
 D a t e : 06 - 02 - 2023                                 T i m e  : 18:12:22
 -------------------------------------------------------------------------------
 -------------------------------------------------------------------------------


 C o n t r o l
 =============

     Number of spectral element control nodes. . .(npgeo) =   40401
     Number of space dimensions. . . . . . . . . . (NDIM) =       2


 C o n t r o l
 =============

     Display frequency . . . (NTSTEP_BETWEEN_OUTPUT_INFO) =    100
     Color display . . . . . . . . . . . . . . . (colors) =      1
      == 0     black and white display              
      == 1     color display                        
     Numbered mesh . . . . . . . . . . . . . . .(numbers) =      0
      == 0     do not number the mesh               
      == 1     number the mesh                      


 C o n t r o l
 =============

     Seismograms recording type . . . . . . .(seismotype) = 4
     Angle for first line of receivers. . . . .(anglerec) =   0.00


 C o n t r o l
 =============

     Read external initial field. . . . . .(initialfield) =      F
     Add Bielak conditions (add_Bielak_conditions_bottom) =      F
     Add Bielak conditions .(add_Bielak_conditions_right) =      F
     Add Bielak conditions . .(add_Bielak_conditions_top) =      F
     Add Bielak conditions. .(add_Bielak_conditions_left) =      F
     Attenuation in solid . . .(ATTENUATION_VISCOELASTIC) =      F
     Attenuation in fluid . . (ATTENUATION_VISCOACOUSTIC) =      F
     Save grid in ASCII file or not . (output_grid_ASCII) =      F
     Save a file with total energy or not.(OUTPUT_ENERGY) =      F


 C o n t r o l
 =============

     Vector display type . . . . . . . . .(imagetype_postscript) =      1
     Percentage of cut for vector plots. . . . . . . .(cutsnaps) =   1.00
     Subsampling of velocity model display. (subsamp_postscript) =      1


 I t e r a t i o n s 
 ===================

     Number of time iterations . . . . .(NSTEP) =     600
     Time step increment. . . . . . . . . .(DT) =   3.500000E-04
     Total simulation duration . . . . . (ttot) =   2.100000E-01


 reading mesh databases:
 reading nodal coordinates...

 -- Spectral Elements --


     Number of spectral elements . . . . . . . . .  (nspec) =  10000
     Number of control nodes per element . . . . . (NGNOD) =      9
     Number of points in X-direction . . . . . . . (NGLLX) =      5
     Number of points in Y-direction . . . . . . . (NGLLZ) =      5
     Number of points per element. . . . . . (NGLLX*NGLLZ) =     25
     Number of points for display . . . . . . (pointsdisp) =      6
     Number of element material sets . . . . . . . (numat) =      1
     Number of acoustic forcing elements (nelem_acforcing) =      0
     Number of acoustic free surf (nelem_acoustic_surface) =      0

 reading attenuation setup...
 reading material properties..


 M a t e r i a l   s e t s :   2 D  (p o r o) e l a s t i c i t y
 ======================================================

     Number of material sets . . . . . . (numat) =     1


     -------------------------------
     -- Acoustic (fluid) material --
     -------------------------------
     Material set number. . . . . . . . (jmat) =     1
     P-wave velocity. . . . . . . . . . . (cp) = 2.70000000E+03
     Mass density. . . . . . . . . . (density) = 2.50000000E+03
     Bulk modulus Kappa . . . . . . . .(kappa) = 1.82250000E+10
     QKappa_attenuation. . . . . . . .(QKappa) = 9.99900000E+03
     Qmu_attenuation. . . . . . . . . . .(Qmu) = 9.99900000E+03

 reading interfaces informations...
   number of interfaces         =            0

 reading absorbing boundary...
   Total number of absorbing elements =          400

   any absorbing boundary flag        =  T
   PML boundary flag                  =  F
   Stacey boundary flag               =  T


 Absorbing boundaries:
   using Stacey absorbing boundary conditions

   Total number of absorbing elements:          400
     nspec_left   =          100
     nspec_right  =          100
     nspec_bottom =          100
     nspec_top    =          100


 reading acoustic forcing...
   acoustic forcing                             =  F
   number of acoustic forcing boundary elements =            0

 reading free surface information...
   number of acoustic free surface boundary elements =            0
 reading coupling surfaces...
   number of fluid-solid edges  =            0
   number of fluid-poro  edges  =            0
   number of solid-poro  edges  =            0

 reading tangential curves...
   number of tangential curve nodes =            0

 reading axial elements...
   number of axial elements     =            0

 done reading mesh databases


 Setting up mesh

 Generating global mesh numbering (fast version)...

 Mesh numbering:
   Total number of elements:        10000

   Total number of acoustic elements           =        10000
   Total number of elastic/visco/poro elements =            0

 Exact total number of grid points in the mesh:       160801

 Approximate number of acoustic degrees of freedom in the mesh:       160801
 Approximate number of elastic degrees of freedom in the mesh:            0
   (there are 2 degrees of freedom per point for elastic elements)

 Approximate total number of degrees of freedom in the mesh
 (sum of the two values above):       160801

  (for simplicity viscoelastic or poroelastic elements, if any,
   are counted as elastic in the above three estimates;
   in reality they have more degrees of freedom)

   saving ibool array to: ./DATA/proc000000_NSPEC_ibool.bin

 Mesh dimensions:
   Xmin,Xmax of the whole mesh =    0.0000000000000000        1000.0000000000001     
   Zmin,Zmax of the whole mesh =    0.0000000000000000        1000.0000000000001     

 Material properties:
   MODEL                 : default
   nspec                 :        10000
   assign external model :  F

   setting up material arrays
   all material arrays done

 Domains:
   total number of acoustic elements        =        10000
   total number of elastic elements         =            0
   total number of poroelastic elements     =            0

 Setting up MPI communication arrays

   maximum number of MPI interfaces (for a single slice) =            0

   This is a single process simulation, no need for MPI communication

   number of outer elements  =            0
   number of inner elements  =        10000

   percentage of outer elements    0.00000000     %
   percentage of inner elements    100.000000     %

   number of global nodes in outer elements  =            0
   number of global nodes in inner elements  =       160801

   determining communication phases:
   acoustic domains:
   total number of outer/inner elements =            0       10000
   total percentage of outer elements    0.00000000     %
   total percentage of inner elements    100.000000     %

 All mesh setup done successfully

 sources:
   Total number of sources:            1


   Setting parameters for source           1

     Source Type. . . . . . . . . . . . . . = Collocated Force
     X-position (meters). . . . . . . . . . =    3.0000000000E+02
     Y-position (meters). . . . . . . . . . =    5.0000000000E+02
     Fundamental frequency (Hz) . . . . . . =    5.0000000000E+01
     Time delay (s) . . . . . . . . . . . . =    0.0000000000E+00
     Multiplying factor . . . . . . . . . . =    1.0000000000E+03
     Angle from vertical direction (deg). . =    0.0000000000E+00


   Source:            1
     Onset time. . . . . . =   -2.4000000000000000E-002
     Fundamental period. . =    2.0000000000000000E-002
     Fundamental frequency =    50.000000000000000     
     The onset time is ok

 Source:            1
 *******************************
  locating force source
 *******************************

 Force source:
             original x:    300.000000    
             original z:    500.000000    
 Closest estimate found:    0.00000000      m away
  in rank            0
  in element         4930
  in acoustic domain
  at xi,gamma coordinates =    1.0000000000000000        1.0000000000000000     


 end of force source detection


 receivers:

 Total number of receivers =            1


 ********************
  locating receivers
 ********************

 reading receiver information from the ./DATA/STATIONS file


 Station #            1     AA      S1                              
             original x:    700.000000    
             original z:    500.000000    
 Closest estimate found:    0.00000000      m away
  in rank            0
  in element         4970
  in acoustic domain
  at xi,gamma coordinates =    1.0000000000000000        1.0000000000000000     
 Distance from source:    400.000000      m

 maximum error in location of all the receivers:    0.00000000      m

 end of receiver detection

 found a total of            1  receivers, this is okay


 adjoint sources:
   adjoint source type:           4
   reading SU-format adjoint source files
   number of adjoint sources =            1
   adjoint sources min/max   =    0.00000000       0.00000000    

 Preparing timerun:

 Movie simulation:
   color images         - JPEG image type:            3
   number of steps between outputs       :          100

 Preparing image coloring: jpeg
   allocating color image arrays
   locating all the pixels of color images
   total number of image pixels =       648025
   done locating all the pixels of color images
   coloring image background based on vp

 Checking mesh and stability

 ********
 Model: P (or PI) velocity min,max =    2700.0000000000000        2700.0000000000000     
 Model: S velocity min,max         =    0.0000000000000000        0.0000000000000000     
 Model: density min,max            =    2500.0000000000000        2500.0000000000000     
 ********


 *********************************************
 *** Verification of simulation parameters ***
 *********************************************

 *** Max grid size =    10.000000000000000     
 *** Min grid size =    10.000000000000000     
 *** Max/min ratio =    1.0000000000000000     

 *** Minimum GLL point distance  =    1.7267316464601139     
 *** Average GLL point distance  =    2.5000000000000000     

 *** Minimum period resolved     =    4.6296296296296294E-003
 *** Maximum frequency resolved  =    216.00000000000000      Hz

 *** Maximum suggested time step                 =    3.1976511971483593E-004
 *** Maximum suggested (Ricker) source frequency =    86.400000000000006     

 *** for DT :    3.49999988E-04
 *** Max CFL stability condition of the time scheme based on P wave velocity (must be below about 0.50 or so) =   0.54727670158666353     

 ----
 Number of points per wavelength:
 ----
   Source            1
   maximum dominant source frequency =    125.00000000000000      Hz

   Nb pts / lambdaP_fmax min =    8.64000034    
   Nb pts / lambdaP_fmax max =    8.64000034    

   purely fluid regions

 -----------------------------------------

 histogram of min number of points per P wavelength in fluid regions:

 there are        10000  elements out of        10000  in fluid regions
   (i.e.,    100.000000     % of the total)

 (too small = poor resolution of calculations -
  too big = wasting memory and CPU time)
 (threshold value is around 4.5 points per S wavelength
  in elastic regions and 5.5 per P wavelength in fluid regions):

   8.55360031      -    8.56223965               0     0.00000000      %
   8.56223965      -    8.57087994               0     0.00000000      %
   8.57087994      -    8.57952023               0     0.00000000      %
   8.57952023      -    8.58815956               0     0.00000000      %
   8.58815956      -    8.59679985               0     0.00000000      %
   8.59679985      -    8.60544014               0     0.00000000      %
   8.60544014      -    8.61408043               0     0.00000000      %
   8.61408043      -    8.62271976               0     0.00000000      %
   8.62271976      -    8.63136005               0     0.00000000      %
   8.63136005      -    8.64000034               0     0.00000000      %
   8.64000034      -    8.64863968           10000     100.000000      %
   8.64863968      -    8.65727997               0     0.00000000      %
   8.65727997      -    8.66592026               0     0.00000000      %
   8.66592026      -    8.67455959               0     0.00000000      %
   8.67455959      -    8.68319988               0     0.00000000      %
   8.68319988      -    8.69184017               0     0.00000000      %
   8.69184017      -    8.70048046               0     0.00000000      %
   8.70048046      -    8.70911980               0     0.00000000      %
   8.70911980      -    8.71776009               0     0.00000000      %
   8.71776009      -    8.72640038               0     0.00000000      %

 total percentage =    100.00000000000000       %


 total number of elements in fluid and solid regions =        10000

 Preparing timerun constants

 Preparing array allocations
   arrays for acoustic domains
   done initialization


 Preparing Stacey boundaries
   total number of absorbing boundary faces/edges:          400

 Attenuation:
   viscoelastic  attenuation: F (shear & bulk attenuation in elastic domains)
   viscoacoustic attenuation: F (bulk attenuation in acoustic domains)

 Preparing mass matrices
   initializing mass matrices
   adding Stacey contributions to mass matrix
   inverting mass matrices


 Preparing kernel simulation:
   estimated minimum period resolved by mesh        :    4.62962966E-03
   estimated number of time steps for minimum period:           13
   estimated steps between compute kernels (for a fair reconstruction):            3

   number of steps between compute kernels:            1

 Preparing adjoint simulation
   initializing adjoint sensitivity kernels
   reading Stacey boundary arrays

 Preparing source time function
   time stepping scheme:   Newmark
   time stepping stages:            1
   time step size      :    3.49999988E-04

   number of time steps:          600
   number of sources   :            1

   saving the source time function in a text file...


 Elapsed time for preparing timerun in seconds =    3.2274007797241211E-002

 ************
  time loop
 ************
               scheme:         Newmark

            time step:    3.49999988E-04  s
 number of time steps:          600
 total simulated time:   0.209999993      seconds
 start time:  -2.40000002E-02  seconds


 =========================================
 =  T i m e  e v o l u t i o n  l o o p  =
 =========================================


 Starting time iteration loop ...


 ******************************************************************
Time step number       5   t =    0.0014 s out of     600
 ******************************************************************
 We have done   0.667779624     % of the total
 Max absolute value of scalar field in fluid (acoustic) =    0.00000000    
 Max absolute value of backward scalar field in fluid (acoustic) =    3.95164670E-06
 Elapsed time in seconds =    2.3999929428100586E-002
 Elapsed time in hh:mm:ss =      0 h 00 m 00 s
 Mean elapsed time per time step in seconds =    4.7999858856201168E-003
 Time steps remaining =          595
 Estimated remaining time in seconds =    2.8559916019439697     
 Estimated remaining time in hh:mm:ss =      0 h 00 m 02 s
 Estimated total run time in seconds =    2.8799915313720703     
 Estimated total run time in hh:mm:ss =      0 h 00 m 02 s
 The run will finish approximately on: Mon Feb 06, 2023 18:12

 Creating color image of size          806  x          846  for time step            5
 drawing scalar image of the adjoint wavefield displacement...
 Color image maximum amplitude =    0.0000000000000000     
 Color image created
 Creating color image of size          806  x          846  for time step            5
 drawing scalar image of the reconstructed forward wavefield displacement...
 Color image maximum amplitude =    1.7141967534495806E-010
 Color image created


 ******************************************************************
Time step number     100   t =    0.0347 s out of     600
 ******************************************************************
 We have done    16.5275459     % of the total
 Max absolute value of scalar field in fluid (acoustic) =    0.00000000    
 Max absolute value of backward scalar field in fluid (acoustic) =    4.15131581E-06
 Elapsed time in seconds =   0.59899997711181641     
 Elapsed time in hh:mm:ss =      0 h 00 m 00 s
 Mean elapsed time per time step in seconds =    5.9899997711181643E-003
 Time steps remaining =          500
 Estimated remaining time in seconds =    2.9949998855590820     
 Estimated remaining time in hh:mm:ss =      0 h 00 m 02 s
 Estimated total run time in seconds =    3.5939998626708984     
 Estimated total run time in hh:mm:ss =      0 h 00 m 03 s
 The run will finish approximately on: Mon Feb 06, 2023 18:12

 Creating color image of size          806  x          846  for time step          100
 drawing scalar image of the adjoint wavefield displacement...
 Color image maximum amplitude =    0.0000000000000000     
 Color image created
 Creating color image of size          806  x          846  for time step          100
 drawing scalar image of the reconstructed forward wavefield displacement...
 Color image maximum amplitude =    1.8818592684952481E-010
 Color image created


 ******************************************************************
Time step number     200   t =    0.0697 s out of     600
 ******************************************************************
 We have done    33.2220383     % of the total
 Max absolute value of scalar field in fluid (acoustic) =    0.00000000    
 Max absolute value of backward scalar field in fluid (acoustic) =    4.44576381E-06
 Elapsed time in seconds =    1.2049999237060547     
 Elapsed time in hh:mm:ss =      0 h 00 m 01 s
 Mean elapsed time per time step in seconds =    6.0249996185302735E-003
 Time steps remaining =          400
 Estimated remaining time in seconds =    2.4099998474121094     
 Estimated remaining time in hh:mm:ss =      0 h 00 m 02 s
 Estimated total run time in seconds =    3.6149997711181641     
 Estimated total run time in hh:mm:ss =      0 h 00 m 03 s
 The run will finish approximately on: Mon Feb 06, 2023 18:12

 Creating color image of size          806  x          846  for time step          200
 drawing scalar image of the adjoint wavefield displacement...
 Color image maximum amplitude =    0.0000000000000000     
 Color image created
 Creating color image of size          806  x          846  for time step          200
 drawing scalar image of the reconstructed forward wavefield displacement...
 Color image maximum amplitude =    2.1504821475869966E-010
 Color image created


 ******************************************************************
Time step number     300   t =    0.1046 s out of     600
 ******************************************************************
 We have done    49.9165268     % of the total
 Max absolute value of scalar field in fluid (acoustic) =    0.00000000    
 Max absolute value of backward scalar field in fluid (acoustic) =    5.28716055E-06
 Elapsed time in seconds =    1.8029999732971191     
 Elapsed time in hh:mm:ss =      0 h 00 m 01 s
 Mean elapsed time per time step in seconds =    6.0099999109903971E-003
 Time steps remaining =          300
 Estimated remaining time in seconds =    1.8029999732971191     
 Estimated remaining time in hh:mm:ss =      0 h 00 m 01 s
 Estimated total run time in seconds =    3.6059999465942383     
 Estimated total run time in hh:mm:ss =      0 h 00 m 03 s
 The run will finish approximately on: Mon Feb 06, 2023 18:12

 Creating color image of size          806  x          846  for time step          300
 drawing scalar image of the adjoint wavefield displacement...
 Color image maximum amplitude =    0.0000000000000000     
 Color image created
 Creating color image of size          806  x          846  for time step          300
 drawing scalar image of the reconstructed forward wavefield displacement...
 Color image maximum amplitude =    2.5119849964464487E-010
 Color image created


 ******************************************************************
Time step number     400   t =    0.1396 s out of     600
 ******************************************************************
 We have done    66.6110153     % of the total
 Max absolute value of scalar field in fluid (acoustic) =    0.00000000    
 Max absolute value of backward scalar field in fluid (acoustic) =    7.09790129E-06
 Elapsed time in seconds =    2.3949999809265137     
 Elapsed time in hh:mm:ss =      0 h 00 m 02 s
 Mean elapsed time per time step in seconds =    5.9874999523162843E-003
 Time steps remaining =          200
 Estimated remaining time in seconds =    1.1974999904632568     
 Estimated remaining time in hh:mm:ss =      0 h 00 m 01 s
 Estimated total run time in seconds =    3.5924999713897705     
 Estimated total run time in hh:mm:ss =      0 h 00 m 03 s
 The run will finish approximately on: Mon Feb 06, 2023 18:12

 Creating color image of size          806  x          846  for time step          400
 drawing scalar image of the adjoint wavefield displacement...
 Color image maximum amplitude =    0.0000000000000000     
 Color image created
 Creating color image of size          806  x          846  for time step          400
 drawing scalar image of the reconstructed forward wavefield displacement...
 Color image maximum amplitude =    3.3106379890071849E-010
 Color image created


 ******************************************************************
Time step number     500   t =    0.1746 s out of     600
 ******************************************************************
 We have done    83.3055115     % of the total
 Max absolute value of scalar field in fluid (acoustic) =    0.00000000    
 Max absolute value of backward scalar field in fluid (acoustic) =    2.63700895E-05
 Elapsed time in seconds =    2.9860000610351562     
 Elapsed time in hh:mm:ss =      0 h 00 m 02 s
 Mean elapsed time per time step in seconds =    5.9720001220703121E-003
 Time steps remaining =          100
 Estimated remaining time in seconds =   0.59720001220703123     
 Estimated remaining time in hh:mm:ss =      0 h 00 m 00 s
 Estimated total run time in seconds =    3.5832000732421876     
 Estimated total run time in hh:mm:ss =      0 h 00 m 03 s
 The run will finish approximately on: Mon Feb 06, 2023 18:12

 Creating color image of size          806  x          846  for time step          500
 drawing scalar image of the adjoint wavefield displacement...
 Color image maximum amplitude =    0.0000000000000000     
 Color image created
 Creating color image of size          806  x          846  for time step          500
 drawing scalar image of the reconstructed forward wavefield displacement...
 Color image maximum amplitude =    6.2976069377842968E-009
 Color image created


 ******************************************************************
Time step number     600   t =    0.2097 s out of     600
 ******************************************************************
 We have done    100.000000     % of the total
 Max absolute value of scalar field in fluid (acoustic) =    0.00000000    
 Max absolute value of backward scalar field in fluid (acoustic) =    2.26493846E-09
 Elapsed time in seconds =    3.5769999027252197     
 Elapsed time in hh:mm:ss =      0 h 00 m 03 s
 Mean elapsed time per time step in seconds =    5.9616665045420332E-003
 Time steps remaining =            0
 Estimated remaining time in seconds =    0.0000000000000000     
 Estimated remaining time in hh:mm:ss =      0 h 00 m 00 s
 Estimated total run time in seconds =    3.5769999027252197     
 Estimated total run time in hh:mm:ss =      0 h 00 m 03 s


 Total number of time steps done:          600
 Writing the seismograms by main proc alone took    2.67028809E-04  seconds

 Creating color image of size          806  x          846  for time step          600
 drawing scalar image of the adjoint wavefield displacement...
 Color image maximum amplitude =    0.0000000000000000     
 Color image created
 Creating color image of size          806  x          846  for time step          600
 drawing scalar image of the reconstructed forward wavefield displacement...
 Color image maximum amplitude =    2.4735818321340577E-014
 Color image created


 Total duration of the time loop in seconds =    3.62036705      s
 Total number of time steps =          600
 Average duration of a time step of the time loop =    6.03394536E-03  s
 Total number of spectral elements in the mesh =        10000
     of which        10000  are regular elements
     and            0  are PML elements.
 Average duration of the calculation per spectral element =    6.03394540E-07  s


 Total duration of the timeloop in seconds, measured using 
 date and time of the system :    3.62100005      s

 Writing Kernels file

 Acoustic kernels:
   maximum value of rho kernel       =    0.00000000    
   maximum value of kappa kernel     =    0.00000000    

   maximum value of rho prime kernel =    0.00000000    
   maximum value of alpha kernel     =    0.00000000    

   ./OUTPUT_FILES/proc000000_rho_acoustic_kernel.bin
   ./OUTPUT_FILES/proc000000_kappa_acoustic_kernel.bin
   ./OUTPUT_FILES/proc000000_rhop_acoustic_kernel.bin
   ./OUTPUT_FILES/proc000000_c_acoustic_kernel.bin

   ./OUTPUT_FILES/proc000000_weights_kernel.bin


 Saving model files to directory: ./DATA/
   SAVE_MODEL type: gll

   written to file(s): ./DATA/proc000000_rho.bin
   written to file(s): ./DATA/proc000000_vp.bin
   written to file(s): ./DATA/proc000000_vs.bin
   written to file(s): ./DATA/proc000000_x.bin
   written to file(s): ./DATA/proc000000_z.bin
   written to file(s): ./DATA/proc000000_jacobian.bin

   done


 -------------------------------------------------------------------------------
 -------------------------------------------------------------------------------
 Program SPECFEM2D: 
 -------------------------------------------------------------------------------
 -------------------------------------------------------------------------------
 Test acoustic
 -------------------------------------------------------------------------------
 -------------------------------------------------------------------------------
 D a t e : 06 - 02 - 2023                                 T i m e  : 18:12:26
 -------------------------------------------------------------------------------
 -------------------------------------------------------------------------------

see results in directory: OUTPUT_FILES/

done: Mon Feb  6 18:12:26 CST 2023

