running example: Tue Feb  7 16:07:53 CST 2023

setting up example...


running mesher...


 **********************************************
 *** Specfem 2-D Mesher - serial version    ***
 **********************************************

 Running Git version of the code corresponding to fd7926e7eae5f9c0f614cf7d06e56c768ca3a9a4
 dating 2022-12-13 20:03:51 +0100

 Reading the parameter file...

 Title of the simulation: Test elastic


 Receiver lines:
   Nb of line sets =            0

   using existing STATIONS file: ./DATA/STATIONS
   file name is ./DATA/STATIONS
   found            1  receivers

 Materials:
   Nb of solid, fluid or porous materials =            1

 --------
 Material #           1  isotropic
 rho,cp,cs   =    2500.0000000000000        2700.0000000000000        1500.0000000000000     
 Qkappa, Qmu =    9999.0000000000000        9999.0000000000000     
 Material is solid
 --------


 Mesh from internal meshing:

 Reading interface data from file: ./DATA/./interfaces.dat
 Reading            2  points for interface            1
 Reading            2  points for interface            2

 Total number of layers in z direction =            1
 There are          100  spectral elements along Z in layer            1

 Total number of spectral elements along X =          100
 Total number of spectral elements along Z =          100

 Regions:
   Nb of regions in the mesh =            1

 ------
 Region            1
 IX from            1  to          100
 IZ from            1  to          100
 Material #            1  isotropic
 Material is solid
 vp     =    2700.00000    
 vs     =    1500.00000    
 rho    =    2500.00000    
 Poisson's ratio =   0.276785702    
 QKappa =    9999.00000    
 Qmu    =    9999.00000    
 ------

 Parameter file successfully read 


 Mesh from internal meshing:
   Total number of spectral elements         =        10000

 PML mesh elements:
   Total number of PML elements =            0

 The mesh contains        10000  elements

 Control elements have            9  nodes

 Reading in SOURCE file...

 Source           1
   Position xs, zs =    300.00000000000000        500.00000000000000     

   Source type (1=force, 2=moment tensor):            2
   Moment tensor source:
   Mxx of the source =    10000000000000000.     
   Mzz of the source =    10000000000000000.     
   Mxz of the source =    0.0000000000000000     

   Time function type (1=Ricker, 2=First derivative, 3=Gaussian, 4=Dirac, 5=Heaviside, 6,7=ocean type, 8=Read from file, 9=burst, 10=Sinusoidal, 11=Ormsby):           3
   Gaussian:
   Frequency, delay =    50.000000000000000        0.0000000000000000     
   Multiplying factor  =    1.0000000000000000     

 all sources are okay

 Normals to surface not needed

 Node coordinates:

 reading node coordinates from interfaces...

 Mesh surfaces:
   determining acoustic free surface...
   number of acoustic elements with free surface =            0

   determining absorbing boundary surfaces...
   number of elements with absorbing boundaries =          400


 Mesh dimensions: 
   Min and max value of X in the grid =    0.0000000000000000        1000.0000000000000     
   Min and max value of Z in the grid =    0.0000000000000000        1000.0000000000000     

 Mesh partitioning:
   decomposing mesh using NPROC =            1

 Graph construction:
   graph adjacency done

 Coupled interfaces:
 nedges_coupled (acoustic/elastic)     =            0
 nedges_coupled (acoustic/poroelastic) =            0
 nedges_coupled (poroelastic/elastic)  =            0

 Local numbering:
   NPROC:            1
   number of elements:        10000

 decompose mesh all done

 Absorbing boundaries:
   nedge_bound   :          400
   nelemabs_merge:          400

 Saving databases:
   database file: ./OUTPUT_FILES/Database00000.bin
   slice            0  has number of spectral elements =       10000

   VTK mesh files:
   written file: ./OUTPUT_FILES//mesh_materials.vtk
   written file: ./OUTPUT_FILES//mesh_partition_number.vtk
   done


 This will be a serial simulation


running solver...


 **********************************************
 **** Specfem 2-D Solver - serial version  ****
 **********************************************

 Running Git version of the code corresponding to fd7926e7eae5f9c0f614cf7d06e56c768ca3a9a4
 dating 2022-12-13 20:03:51 +0100


 NDIM =            2

 NGLLX =            5
 NGLLZ =            5

 using single precision for the calculations

 smallest and largest possible floating-point numbers are:    1.17549435E-38   3.40282347E+38

 Reading the parameter file...

 Title of the simulation: Test elastic


   using existing STATIONS file: ./DATA/STATIONS
   file name is ./DATA/STATIONS
   found            1  receivers

 Parameter file successfully read 

 Reading in SOURCE file...

 Source           1
   Position xs, zs =    300.00000000000000        500.00000000000000     

   Source type (1=force, 2=moment tensor):            2
   Moment tensor source:
   Mxx of the source =    10000000000000000.     
   Mzz of the source =    10000000000000000.     
   Mxz of the source =    0.0000000000000000     

   Time function type (1=Ricker, 2=First derivative, 3=Gaussian, 4=Dirac, 5=Heaviside, 6,7=ocean type, 8=Read from file, 9=burst, 10=Sinusoidal, 11=Ormsby):           3
   Gaussian:
   Frequency, delay =    50.000000000000000        0.0000000000000000     
   Multiplying factor  =    1.0000000000000000     

 all sources are okay



 -------------------------------------------------------------------------------
 -------------------------------------------------------------------------------
 Program SPECFEM2D: 
 -------------------------------------------------------------------------------
 -------------------------------------------------------------------------------
 Test elastic
 -------------------------------------------------------------------------------
 -------------------------------------------------------------------------------
 D a t e : 07 - 02 - 2023                                 T i m e  : 16:07:53
 -------------------------------------------------------------------------------
 -------------------------------------------------------------------------------


 C o n t r o l
 =============

     Number of spectral element control nodes. . .(npgeo) =   40401
     Number of space dimensions. . . . . . . . . . (NDIM) =       2


 C o n t r o l
 =============

     Display frequency . . . (NTSTEP_BETWEEN_OUTPUT_INFO) =    100
     Color display . . . . . . . . . . . . . . . (colors) =      1
      == 0     black and white display              
      == 1     color display                        
     Numbered mesh . . . . . . . . . . . . . . .(numbers) =      0
      == 0     do not number the mesh               
      == 1     number the mesh                      


 C o n t r o l
 =============

     Seismograms recording type . . . . . . .(seismotype) = 1
     Angle for first line of receivers. . . . .(anglerec) =   0.00


 C o n t r o l
 =============

     Read external initial field. . . . . .(initialfield) =      F
     Add Bielak conditions (add_Bielak_conditions_bottom) =      F
     Add Bielak conditions .(add_Bielak_conditions_right) =      F
     Add Bielak conditions . .(add_Bielak_conditions_top) =      F
     Add Bielak conditions. .(add_Bielak_conditions_left) =      F
     Attenuation in solid . . .(ATTENUATION_VISCOELASTIC) =      F
     Attenuation in fluid . . (ATTENUATION_VISCOACOUSTIC) =      F
     Save grid in ASCII file or not . (output_grid_ASCII) =      F
     Save a file with total energy or not.(OUTPUT_ENERGY) =      F


 C o n t r o l
 =============

     Vector display type . . . . . . . . .(imagetype_postscript) =      1
     Percentage of cut for vector plots. . . . . . . .(cutsnaps) =   1.00
     Subsampling of velocity model display. (subsamp_postscript) =      1


 I t e r a t i o n s 
 ===================

     Number of time iterations . . . . .(NSTEP) =     600
     Time step increment. . . . . . . . . .(DT) =   3.500000E-04
     Total simulation duration . . . . . (ttot) =   2.100000E-01


 reading mesh databases:
 reading nodal coordinates...

 -- Spectral Elements --


     Number of spectral elements . . . . . . . . .  (nspec) =  10000
     Number of control nodes per element . . . . . (NGNOD) =      9
     Number of points in X-direction . . . . . . . (NGLLX) =      5
     Number of points in Y-direction . . . . . . . (NGLLZ) =      5
     Number of points per element. . . . . . (NGLLX*NGLLZ) =     25
     Number of points for display . . . . . . (pointsdisp) =      6
     Number of element material sets . . . . . . . (numat) =      1
     Number of acoustic forcing elements (nelem_acforcing) =      0
     Number of acoustic free surf (nelem_acoustic_surface) =      0

 reading attenuation setup...
 reading material properties..


 M a t e r i a l   s e t s :   2 D  (p o r o) e l a s t i c i t y
 ======================================================

     Number of material sets . . . . . . (numat) =     1


     ----------------------------------------
     -- Elastic (solid) isotropic material --
     ----------------------------------------
     Material set number. . . . . . . . (jmat) =     1
     P-wave velocity. . . . . . . . . . . (cp) = 2.70000000E+03
     S-wave velocity. . . . . . . . . . . (cs) = 1.50000000E+03
     Mass density. . . . . . . . . . (density) = 2.50000000E+03
     Poisson's ratio. . . . . . . . .(poisson) = 2.76785714E-01
     First Lame parameter Lambda. . . (lambda) = 6.97500000E+09
     Second Lame parameter Mu. . . . . . .(mu) = 5.62500000E+09
     Bulk modulus Kappa . . . . . . . .(kappa) = 1.26000000E+10
     Young's modulus E. . . . . . . . .(young) = 1.46891192E+10
     QKappa_attenuation .  . . . . . .(QKappa) = 9.99900000E+03
     Qmu_attenuation . . . . . . . . . . (Qmu) = 9.99900000E+03

 reading interfaces informations...
   number of interfaces         =            0

 reading absorbing boundary...
   Total number of absorbing elements =          400

   any absorbing boundary flag        =  T
   PML boundary flag                  =  F
   Stacey boundary flag               =  T


 Absorbing boundaries:
   using Stacey absorbing boundary conditions

   Total number of absorbing elements:          400
     nspec_left   =          100
     nspec_right  =          100
     nspec_bottom =          100
     nspec_top    =          100


 reading acoustic forcing...
   acoustic forcing                             =  F
   number of acoustic forcing boundary elements =            0

 reading free surface information...
   number of acoustic free surface boundary elements =            0
 reading coupling surfaces...
   number of fluid-solid edges  =            0
   number of fluid-poro  edges  =            0
   number of solid-poro  edges  =            0

 reading tangential curves...
   number of tangential curve nodes =            0

 reading axial elements...
   number of axial elements     =            0

 done reading mesh databases


 Setting up mesh

 Generating global mesh numbering (fast version)...

 Mesh numbering:
   Total number of elements:        10000

   Total number of acoustic elements           =            0
   Total number of elastic/visco/poro elements =        10000

 Exact total number of grid points in the mesh:       160801

 Approximate number of acoustic degrees of freedom in the mesh:            0
 Approximate number of elastic degrees of freedom in the mesh:       321602
   (there are 2 degrees of freedom per point for elastic elements)

 Approximate total number of degrees of freedom in the mesh
 (sum of the two values above):       321602

  (for simplicity viscoelastic or poroelastic elements, if any,
   are counted as elastic in the above three estimates;
   in reality they have more degrees of freedom)

   saving ibool array to: ./DATA/proc000000_NSPEC_ibool.bin

 Mesh dimensions:
   Xmin,Xmax of the whole mesh =    0.0000000000000000        1000.0000000000001     
   Zmin,Zmax of the whole mesh =    0.0000000000000000        1000.0000000000001     

 Material properties:
   MODEL                 : default
   nspec                 :        10000
   assign external model :  F

   setting up material arrays
   all material arrays done

 Domains:
   total number of acoustic elements        =            0
   total number of elastic elements         =        10000
   total number of poroelastic elements     =            0

 Setting up MPI communication arrays

   maximum number of MPI interfaces (for a single slice) =            0

   This is a single process simulation, no need for MPI communication

   number of outer elements  =            0
   number of inner elements  =        10000

   percentage of outer elements    0.00000000     %
   percentage of inner elements    100.000000     %

   number of global nodes in outer elements  =            0
   number of global nodes in inner elements  =       160801

   determining communication phases:
   elastic domains:
   total number of outer/inner elements =            0       10000
   total percentage of outer elements    0.00000000     %
   total percentage of inner elements    100.000000     %

 All mesh setup done successfully

 sources:
   Total number of sources:            1


   Setting parameters for source           1

     Source Type. . . . . . . . . . . . . . = Moment-tensor
     X-position (meters). . . . . . . . . . =    3.0000000000E+02
     Y-position (meters). . . . . . . . . . =    5.0000000000E+02
     Fundamental frequency (Hz) . . . . . . =    5.0000000000E+01
     Time delay (s) . . . . . . . . . . . . =    0.0000000000E+00
     Multiplying factor . . . . . . . . . . =    1.0000000000E+00
     Mxx. . . . . . . . . . . . . . . . . . =    1.0000000000E+16
     Mzz. . . . . . . . . . . . . . . . . . =    1.0000000000E+16
     Mxz. . . . . . . . . . . . . . . . . . =    0.0000000000E+00

     2D seismic moment M0 =    9.99999978E+22 (dyne-cm)
         moment magnitude =    4.63333321    

   Source:            1
     Onset time. . . . . . =   -2.4000000000000000E-002
     Fundamental period. . =    2.0000000000000000E-002
     Fundamental frequency =    50.000000000000000     
     The onset time is ok

 Source:            1
 *******************************
  locating moment-tensor source
 *******************************

 Moment-tensor source:
             original x:    300.000000    
             original z:    500.000000    
 Closest estimate found:    0.00000000      m away
  in rank            0
  in element         4930
  in elastic domain
  at xi,gamma coordinates =    1.0000000000000000        1.0000000000000000     


 end of moment-tensor source detection


 receivers:

 Total number of receivers =            1


 ********************
  locating receivers
 ********************

 reading receiver information from the ./DATA/STATIONS file


 Station #            1     AA      S1                              
             original x:    700.000000    
             original z:    500.000000    
 Closest estimate found:    0.00000000      m away
  in rank            0
  in element         4970
  in elastic domain
  at xi,gamma coordinates =    1.0000000000000000        1.0000000000000000     
 Distance from source:    400.000000      m

 maximum error in location of all the receivers:    0.00000000      m

 end of receiver detection

 found a total of            1  receivers, this is okay


 adjoint sources:
   adjoint source type:           1
   reading SU-format adjoint source files
   number of adjoint sources =            1
   adjoint sources min/max   =    0.00000000       0.00000000    

 Preparing timerun:

 Movie simulation:
   color images         - JPEG image type:            3
   number of steps between outputs       :          100

 Preparing image coloring: jpeg
   allocating color image arrays
   locating all the pixels of color images
   total number of image pixels =       648025
   done locating all the pixels of color images
   coloring image background based on vp

 Checking mesh and stability

 ********
 Model: P (or PI) velocity min,max =    2700.0000000000000        2700.0000000000000     
 Model: S velocity min,max         =    1499.9999914666666        1499.9999914666666     
 Model: density min,max            =    2500.0000000000000        2500.0000000000000     
 ********


 *********************************************
 *** Verification of simulation parameters ***
 *********************************************

 *** Max grid size =    10.000000000000000     
 *** Min grid size =    10.000000000000000     
 *** Max/min ratio =    1.0000000000000000     

 *** Minimum GLL point distance  =    1.7267316464601139     
 *** Average GLL point distance  =    2.5000000000000000     

 *** Minimum period resolved     =    8.3333333807407411E-003
 *** Maximum frequency resolved  =    119.99999931733333      Hz

 *** Maximum suggested time step                 =    3.1976511971483593E-004
 *** Maximum suggested (Ricker) source frequency =    47.999999726933339     

 *** for DT :    3.49999988E-04
 *** Max CFL stability condition of the time scheme based on P wave velocity (must be below about 0.50 or so) =   0.54727670158666353     

 ----
 Number of points per wavelength:
 ----
   Source            1
   maximum dominant source frequency =    125.00000000000000      Hz

   Nb pts / lambdaP_fmax min =    8.64000034    
   Nb pts / lambdaP_fmax max =    8.64000034    

   Nb pts / lambdaS_fmax min =    4.80000019    
   Nb pts / lambdaS_fmax max =    4.80000019    

 -----------------------------------------

 histogram of min number of points per S wavelength in solid regions:

 there are        10000  elements out of        10000  in solid regions
   (i.e.,    100.000000     % of the total)

 (too small = poor resolution of calculations -
  too big = wasting memory and CPU time)
 (threshold value is around 4.5 points per S wavelength
  in elastic regions and 5.5 per P wavelength in fluid regions):

   4.75199986      -    4.75680017               0     0.00000000      %
   4.75680017      -    4.76160002               0     0.00000000      %
   4.76160002      -    4.76639986               0     0.00000000      %
   4.76639986      -    4.77120018               0     0.00000000      %
   4.77120018      -    4.77600002               0     0.00000000      %
   4.77600002      -    4.78079987               0     0.00000000      %
   4.78079987      -    4.78560019               0     0.00000000      %
   4.78560019      -    4.79040003               0     0.00000000      %
   4.79040003      -    4.79519987               0     0.00000000      %
   4.79519987      -    4.80000019               0     0.00000000      %
   4.80000019      -    4.80480003           10000     100.000000      %
   4.80480003      -    4.80959988               0     0.00000000      %
   4.80959988      -    4.81440020               0     0.00000000      %
   4.81440020      -    4.81920004               0     0.00000000      %
   4.81920004      -    4.82399988               0     0.00000000      %
   4.82399988      -    4.82880020               0     0.00000000      %
   4.82880020      -    4.83360004               0     0.00000000      %
   4.83360004      -    4.83839989               0     0.00000000      %
   4.83839989      -    4.84320021               0     0.00000000      %
   4.84320021      -    4.84800005               0     0.00000000      %

 total percentage =    100.00000000000000       %


 total number of elements in fluid and solid regions =        10000

 Preparing timerun constants

 Preparing array allocations
   arrays for elastic domains
   done initialization


 Preparing Stacey boundaries
   total number of absorbing boundary faces/edges:          400

 Attenuation:
   viscoelastic  attenuation: F (shear & bulk attenuation in elastic domains)
   viscoacoustic attenuation: F (bulk attenuation in acoustic domains)

 Preparing mass matrices
   initializing mass matrices
   adding Stacey contributions to mass matrix
   inverting mass matrices


 Preparing kernel simulation:
   estimated minimum period resolved by mesh        :    8.33333377E-03
   estimated number of time steps for minimum period:           23
   estimated steps between compute kernels (for a fair reconstruction):            5

   number of steps between compute kernels:            1

 Preparing adjoint simulation
   initializing adjoint sensitivity kernels
   reading Stacey boundary arrays

 Preparing source time function
   time stepping scheme:   Newmark
   time stepping stages:            1
   time step size      :    3.49999988E-04

   number of time steps:          600
   number of sources   :            1

   saving the source time function in a text file...


 Elapsed time for preparing timerun in seconds =    5.6816995143890381E-002

 ************
  time loop
 ************
               scheme:         Newmark

            time step:    3.49999988E-04  s
 number of time steps:          600
 total simulated time:   0.209999993      seconds
 start time:  -2.40000002E-02  seconds


 =========================================
 =  T i m e  e v o l u t i o n  l o o p  =
 =========================================


 Starting time iteration loop ...


 ******************************************************************
Time step number       5   t =    0.0014 s out of     600
 ******************************************************************
 We have done   0.667779624     % of the total
 Max norm of vector field in solid (elastic) =    0.00000000    
 Max norm of backward vector field in solid (elastic) =    2.17895564E-02
 Elapsed time in seconds =    4.7000169754028320E-002
 Elapsed time in hh:mm:ss =      0 h 00 m 00 s
 Mean elapsed time per time step in seconds =    9.4000339508056637E-003
 Time steps remaining =          595
 Estimated remaining time in seconds =    5.5930202007293701     
 Estimated remaining time in hh:mm:ss =      0 h 00 m 05 s
 Estimated total run time in seconds =    5.6400203704833984     
 Estimated total run time in hh:mm:ss =      0 h 00 m 05 s
 The run will finish approximately on: Tue Feb 07, 2023 16:08

 Creating color image of size          806  x          846  for time step            5
 drawing scalar image of the adjoint wavefield displacement...
 Color image maximum amplitude =    0.0000000000000000     
 Color image created
 Creating color image of size          806  x          846  for time step            5
 drawing scalar image of the reconstructed forward wavefield displacement...
 Color image maximum amplitude =    2.1799286739718836E-002
 Color image created


 ******************************************************************
Time step number     100   t =    0.0347 s out of     600
 ******************************************************************
 We have done    16.5275459     % of the total
 Max norm of vector field in solid (elastic) =    0.00000000    
 Max norm of backward vector field in solid (elastic) =    2.40083244E-02
 Elapsed time in seconds =    1.0859999656677246     
 Elapsed time in hh:mm:ss =      0 h 00 m 01 s
 Mean elapsed time per time step in seconds =    1.0859999656677246E-002
 Time steps remaining =          500
 Estimated remaining time in seconds =    5.4299998283386230     
 Estimated remaining time in hh:mm:ss =      0 h 00 m 05 s
 Estimated total run time in seconds =    6.5159997940063477     
 Estimated total run time in hh:mm:ss =      0 h 00 m 06 s
 The run will finish approximately on: Tue Feb 07, 2023 16:08

 Creating color image of size          806  x          846  for time step          100
 drawing scalar image of the adjoint wavefield displacement...
 Color image maximum amplitude =    0.0000000000000000     
 Color image created
 Creating color image of size          806  x          846  for time step          100
 drawing scalar image of the reconstructed forward wavefield displacement...
 Color image maximum amplitude =    2.4033962120955672E-002
 Color image created


 ******************************************************************
Time step number     200   t =    0.0697 s out of     600
 ******************************************************************
 We have done    33.2220383     % of the total
 Max norm of vector field in solid (elastic) =    0.00000000    
 Max norm of backward vector field in solid (elastic) =    2.73728315E-02
 Elapsed time in seconds =    2.1670000553131104     
 Elapsed time in hh:mm:ss =      0 h 00 m 02 s
 Mean elapsed time per time step in seconds =    1.0835000276565553E-002
 Time steps remaining =          400
 Estimated remaining time in seconds =    4.3340001106262207     
 Estimated remaining time in hh:mm:ss =      0 h 00 m 04 s
 Estimated total run time in seconds =    6.5010001659393311     
 Estimated total run time in hh:mm:ss =      0 h 00 m 06 s
 The run will finish approximately on: Tue Feb 07, 2023 16:08

 Creating color image of size          806  x          846  for time step          200
 drawing scalar image of the adjoint wavefield displacement...
 Color image maximum amplitude =    0.0000000000000000     
 Color image created
 Creating color image of size          806  x          846  for time step          200
 drawing scalar image of the reconstructed forward wavefield displacement...
 Color image maximum amplitude =    2.7433285491236428E-002
 Color image created


 ******************************************************************
Time step number     300   t =    0.1046 s out of     600
 ******************************************************************
 We have done    49.9165268     % of the total
 Max norm of vector field in solid (elastic) =    0.00000000    
 Max norm of backward vector field in solid (elastic) =    3.27584334E-02
 Elapsed time in seconds =    3.2490000724792480     
 Elapsed time in hh:mm:ss =      0 h 00 m 03 s
 Mean elapsed time per time step in seconds =    1.0830000241597493E-002
 Time steps remaining =          300
 Estimated remaining time in seconds =    3.2490000724792480     
 Estimated remaining time in hh:mm:ss =      0 h 00 m 03 s
 Estimated total run time in seconds =    6.4980001449584961     
 Estimated total run time in hh:mm:ss =      0 h 00 m 06 s
 The run will finish approximately on: Tue Feb 07, 2023 16:08

 Creating color image of size          806  x          846  for time step          300
 drawing scalar image of the adjoint wavefield displacement...
 Color image maximum amplitude =    0.0000000000000000     
 Color image created
 Creating color image of size          806  x          846  for time step          300
 drawing scalar image of the reconstructed forward wavefield displacement...
 Color image maximum amplitude =    3.2830357942776639E-002
 Color image created


 ******************************************************************
Time step number     400   t =    0.1396 s out of     600
 ******************************************************************
 We have done    66.6110153     % of the total
 Max norm of vector field in solid (elastic) =    0.00000000    
 Max norm of backward vector field in solid (elastic) =    4.35691215E-02
 Elapsed time in seconds =    4.3350000381469727     
 Elapsed time in hh:mm:ss =      0 h 00 m 04 s
 Mean elapsed time per time step in seconds =    1.0837500095367431E-002
 Time steps remaining =          200
 Estimated remaining time in seconds =    2.1675000190734863     
 Estimated remaining time in hh:mm:ss =      0 h 00 m 02 s
 Estimated total run time in seconds =    6.5025000572204590     
 Estimated total run time in hh:mm:ss =      0 h 00 m 06 s
 The run will finish approximately on: Tue Feb 07, 2023 16:08

 Creating color image of size          806  x          846  for time step          400
 drawing scalar image of the adjoint wavefield displacement...
 Color image maximum amplitude =    0.0000000000000000     
 Color image created
 Creating color image of size          806  x          846  for time step          400
 drawing scalar image of the reconstructed forward wavefield displacement...
 Color image maximum amplitude =    4.3734117575975652E-002
 Color image created


 ******************************************************************
Time step number     500   t =    0.1746 s out of     600
 ******************************************************************
 We have done    83.3055115     % of the total
 Max norm of vector field in solid (elastic) =    0.00000000    
 Max norm of backward vector field in solid (elastic) =   0.294025749    
 Elapsed time in seconds =    5.4120001792907715     
 Elapsed time in hh:mm:ss =      0 h 00 m 05 s
 Mean elapsed time per time step in seconds =    1.0824000358581543E-002
 Time steps remaining =          100
 Estimated remaining time in seconds =    1.0824000358581543     
 Estimated remaining time in hh:mm:ss =      0 h 00 m 01 s
 Estimated total run time in seconds =    6.4944002151489260     
 Estimated total run time in hh:mm:ss =      0 h 00 m 06 s
 The run will finish approximately on: Tue Feb 07, 2023 16:08

 Creating color image of size          806  x          846  for time step          500
 drawing scalar image of the adjoint wavefield displacement...
 Color image maximum amplitude =    0.0000000000000000     
 Color image created
 Creating color image of size          806  x          846  for time step          500
 drawing scalar image of the reconstructed forward wavefield displacement...
 Color image maximum amplitude =   0.35709429485124133     
 Color image created


 ******************************************************************
Time step number     600   t =    0.2097 s out of     600
 ******************************************************************
 We have done    100.000000     % of the total
 Max norm of vector field in solid (elastic) =    0.00000000    
 Max norm of backward vector field in solid (elastic) =    9.40505743E-06
 Elapsed time in seconds =    6.5370001792907715     
 Elapsed time in hh:mm:ss =      0 h 00 m 06 s
 Mean elapsed time per time step in seconds =    1.0895000298817953E-002
 Time steps remaining =            0
 Estimated remaining time in seconds =    0.0000000000000000     
 Estimated remaining time in hh:mm:ss =      0 h 00 m 00 s
 Estimated total run time in seconds =    6.5370001792907715     
 Estimated total run time in hh:mm:ss =      0 h 00 m 06 s


 Total number of time steps done:          600
 Writing the seismograms by main proc alone took    4.66346741E-04  seconds

 Creating color image of size          806  x          846  for time step          600
 drawing scalar image of the adjoint wavefield displacement...
 Color image maximum amplitude =    0.0000000000000000     
 Color image created
 Creating color image of size          806  x          846  for time step          600
 drawing scalar image of the reconstructed forward wavefield displacement...
 Color image maximum amplitude =    6.5524823143730748E-007
 Color image created


 Total duration of the time loop in seconds =    6.57731533      s
 Total number of time steps =          600
 Average duration of a time step of the time loop =    1.09621920E-02  s
 Total number of spectral elements in the mesh =        10000
     of which        10000  are regular elements
     and            0  are PML elements.
 Average duration of the calculation per spectral element =    1.09621919E-06  s


 Total duration of the timeloop in seconds, measured using 
 date and time of the system :    6.58400011      s

 Writing Kernels file

 Elastic kernels:
   maximum value of rho  kernel      =   -0.00000000    
   maximum value of kappa kernel     =   -0.00000000    
   maximum value of mu kernel        =   -0.00000000    

   maximum value of rho prime kernel =   -0.00000000    
   maximum value of alpha kernel     =   -0.00000000    
   maximum value of beta kernel      =    0.00000000    

   ./OUTPUT_FILES/proc000000_rho_kernel.bin
   ./OUTPUT_FILES/proc000000_kappa_kernel.bin
   ./OUTPUT_FILES/proc000000_mu_kernel.bin
   ./OUTPUT_FILES/proc000000_rhop_kernel.bin
   ./OUTPUT_FILES/proc000000_alpha_kernel.bin
   ./OUTPUT_FILES/proc000000_beta_kernel.bin
   ./OUTPUT_FILES/proc000000_bulk_c_kernel.bin
   ./OUTPUT_FILES/proc000000_bulk_beta_kernel.bin

   ./OUTPUT_FILES/proc000000_weights_kernel.bin


 Saving model files to directory: ./DATA/
   SAVE_MODEL type: gll

   written to file(s): ./DATA/proc000000_rho.bin
   written to file(s): ./DATA/proc000000_vp.bin
   written to file(s): ./DATA/proc000000_vs.bin
   written to file(s): ./DATA/proc000000_x.bin
   written to file(s): ./DATA/proc000000_z.bin
   written to file(s): ./DATA/proc000000_jacobian.bin

   done


 -------------------------------------------------------------------------------
 -------------------------------------------------------------------------------
 Program SPECFEM2D: 
 -------------------------------------------------------------------------------
 -------------------------------------------------------------------------------
 Test elastic
 -------------------------------------------------------------------------------
 -------------------------------------------------------------------------------
 D a t e : 07 - 02 - 2023                                 T i m e  : 16:08:00
 -------------------------------------------------------------------------------
 -------------------------------------------------------------------------------

see results in directory: OUTPUT_FILES/

done: Tue Feb  7 16:08:00 CST 2023

